
&HEAD CHID='0018_MHighA_R3' / ! test
&VENT MB='XMIN' SURF_ID='OPEN' /
&VENT MB='XMAX' SURF_ID='OPEN' /
&VENT MB='YMIN' SURF_ID='OPEN' /
&VENT MB='YMAX' SURF_ID='OPEN' /
&VENT MB='ZMAX' SURF_ID='OPEN' /

! Properties for all scenarios
&PROP ACTIVATION_OBSCURATION=12.0,
      ID='Smoke Detector',
      LENGTH=1.8,
      QUANTITY='CHAMBER OBSCURATION' /

&MISC MAXIMUM_VISIBILITY=200.0
      VISIBILITY_FACTOR=8.0 /

&REAC IDEAL=.FAL
