! Generated by BlenderFDS 3.0.0 on Blender 2.74 (sub 0)
! Date: Fri, 19 Jun 2015, 09:40:34
! File: C:\Users\Jake O'Shannessy\jakedoc\RAWFiRE\WIT\Phase2\Full.blend
!
! HEAD: Free text 'StdProps' appended
&HEAD CHID='a0018_MHighA_R3' /
&VENT MB='XMIN' SURF_ID='OPEN' /
&VENT MB='XMAX' SURF_ID='OPEN' /
&VENT MB='YMIN' SURF_ID='OPEN' /
&VENT MB='YMAX' SURF_ID='OPEN' /
&VENT MB='ZMAX' SURF_ID='OPEN' /

! Properties for all scenarios
&PROP ACTIVATION_OBSCURATION=12.0,
      ID='Smoke Detector',
      LENGTH=1.8 /

&MISC MAXIMUM_VISIBILITY=200.0
      VISIBILITY_FACTOR=8.0 /

&REAC ID='POLYURETHANE'
      FUEL='REAC_FUEL'
      CO_YIELD=0.050000
      SOOT_YIELD=0.100000
      IDEAL=.FALSE.
      C=6.3
      H=7.1
      N=1.0 O=2.1 /

&SLCF ID='SliceOverallTempXB' QUANTITY='TEMPERATURE' VECTOR=.FALSE. XB=-11.975,-11.975,80.000,140.000,-17.000,7.000 /
&SLCF ID='SliceOverallTempXC' QUANTITY='TEMPERATURE' VECTOR=.FALSE. XB=-42.000,-42.000,-242.000,80.000,-17.000,7.000 /

! x-plane visibility  slices are included in blender geometry

ISOF QUANTITY='VISIBILITY' VALUE(1)=10.0 VALUE(1)=20.0 /
ISOF QUANTITY='TEMPERATURE' VALUE(1)=60.0 VALUE(2)=200.0 /

&MATL ID='STEEL'
      FYI='Drysdale, Intro to Fire Dynamics - ATF NIST Multi-Floor Validation'
      SPECIFIC_HEAT=0.46
      CONDUCTIVITY=45.8
      DENSITY=7850.0
      EMISSIVITY=0.95 /


&SURF ID='Surface02', RGB=146,202,166, BACKING='VOID', MATL_ID(1,1)='STEEL', MATL_MASS_FRACTION(1,1)=1.0, THICKNESS(1)=0.003/
&SURF ID='BurnerSurf8000', HRRPUA=444.44444444444446, TAU_Q=-848.5281374238571 / Capped 8000.0 kW over 18.0 sqm, EurocodeMedium growth rate
&SURF ID='BurnerSurf2000', HRRPUA=111.11111111111111, TAU_Q=-424.26406871192853 / Capped 2000.0 kW over 18.0 sqm, EurocodeMedium growth rate

! End of free text
&TIME T_BEGIN=0.0 T_END=1800.0 /
&MISC  /
! DUMP: NFRAMES: Output is dumped every 1.00 s
DUMP NFRAMES=1800 DT_ISOF=10.0 PLOT3D_QUANTITY='VISIBILITY','TEMPERATURE','VELOCITY' DT_RESTART=50.0  /
SURF ID='3_1' RGB=25,25,25 /
SURF ID='96_96_96' RGB=96,96,96 /
SURF ID='CarriageSurf' RGB=204,133,43 MATL_ID='STEEL' THICKNESS=0.003 /
SURF ID='Color_00' RGB=30,30,30 /
SURF ID='Color_01' RGB=20,20,20 /
SURF ID='Color_02' RGB=43,42,41 /
SURF ID='Color_03' RGB=40,40,40 /
SURF ID='Color_A0' RGB=196,45,40 /
SURF ID='Color_C0' RGB=219,109,39 /
SURF ID='Color_C2' RGB=81,78,71 /
SURF ID='Color_D0' RGB=232,224,214 /
SURF ID='Color_H2' RGB=60,61,59 /
SURF ID='Color_I1' RGB=50,45,99 /
SURF ID='Foregrou' RGB=0,0,0 /
SURF ID='FrontCol' RGB=255,255,255 /
SURF ID='INERT.038' FYI='Predefined SURF' RGB=204,204,51 /
SURF ID='MIRROR.001' FYI='Predefined SURF' RGB=51,51,204 /
SURF ID='Metal_Co.001' RGB=35,35,35 /
SURF ID='OPEN.001' FYI='Predefined SURF' RGB=51,204,204 TRANSPARENCY=0.20 /
SURF ID='Platform' FYI='Predefined SURF' RGB=78,204,198 /
SURF ID='ProbeMatl' RGB=204,204,204 /
SURF ID='RoofSurf' RGB=204,204,51 MATL_ID='STEEL' THICKNESS=0.003 /
SURF ID='_Color01' RGB=43,43,43 /
SURF ID='_Color02' RGB=37,40,61 /
SURF ID='_Color_0' RGB=71,70,70 /
SURF ID='_Color_C' RGB=91,81,68 /
SURF ID='_Color_I' RGB=56,54,50 /
SURF ID='black' RGB=0,0,0 /
OBST ID='BurnerHigh' THICKEN=.TRUE. XB=-28.875,-27.375,69.750,81.750,-6.250,-6.000 SURF_IDS='BurnerSurf8000','INERT','INERT' /
! OBST: XB: 304 faces
&TAIL /
! Generated in 16 s.
