&HEAD CHID='heat_conduction_b', TITLE='Heat Transfer through solid Slab' /

&MESH IJK=3,3,3, XB=-0.15,0.15,-0.15,0.15,0.0,0.3 /

&TIME T_END=14000., WALL_INCREMENT=1, DT=0.5 /

&MISC SOLID_PHASE_ONLY=.TRUE., ASSUMED_GAS_TEMPERATURE=120.  /  Case B

&SURF ID        = 'SLAB'
      MATL_ID   = 'SLAB_B'
      THICKNESS = 0.1
      STRETCH_FACTOR = 1.
      HEAT_TRANSFER_COEFFICIENT   = 10.
      BACKING   = 'INSULATED' /

&MATL ID            = 'SLAB_B'
      CONDUCTIVITY  = 0.1
      EMISSIVITY    = 0.
      SPECIFIC_HEAT = 1.0
      DENSITY       = 100. /

&VENT XB = -0.05,0.05,-0.05,0.05,0.0,0.0, SURF_ID='SLAB' /

&VENT MB='XMIN', SURF_ID='OPEN' /
&VENT MB='XMAX', SURF_ID='OPEN' /
&VENT MB='YMIN', SURF_ID='OPEN' /
&VENT MB='YMAX', SURF_ID='OPEN' /
&VENT MB='ZMAX', SURF_ID='OPEN' /

&BNDF QUANTITY='WALL TEMPERATURE' /

&DEVC XYZ = 0.0,0.0,0.0, IOR = 3, ID='Back',  QUANTITY = 'BACK WALL TEMPERATURE' /
&DEVC XYZ = 0.0,0.0,0.0, IOR = 3, ID='8 cm',  QUANTITY = 'INSIDE WALL TEMPERATURE', DEPTH=0.08 /
&DEVC XYZ = 0.0,0.0,0.0, IOR = 3, ID='6 cm',  QUANTITY = 'INSIDE WALL TEMPERATURE', DEPTH=0.06 /
&DEVC XYZ = 0.0,0.0,0.0, IOR = 3, ID='4 cm',  QUANTITY = 'INSIDE WALL TEMPERATURE', DEPTH=0.04 /
&DEVC XYZ = 0.0,0.0,0.0, IOR = 3, ID='2 cm',  QUANTITY = 'INSIDE WALL TEMPERATURE', DEPTH=0.02 /
&DEVC XYZ = 0.0,0.0,0.0, IOR = 3, ID='Front', QUANTITY = 'WALL TEMPERATURE' /

&TAIL /
